<?xml version="1.0" encoding="UTF-8"?>

<!-- generated on 2023-03-23 16:30:10.761240 by randomTrips.py UNKNOWN
<configuration>
    <end value="200"/>
    <fringe-factor value="100000.0"/>
    <lanes value="True"/>
    <max-distance value="500000.0"/>
    <min-distance value="1000.0"/>
    <net-file value="net.xml"/>
    <period value="0.03"/>
    <route-file value="output.trips2.xml"/>
    <seed value="30"/>
    <trip-attributes value=" departSpeed=&quot;27&quot; carFollowModel=&quot;Krauss&quot; lcKeepRight=&quot;0&quot;"/>
    <prefix value="truck"/>
    <validate value="True"/>
    <vehicle-class value="truck"/>
</configuration>
-->

<!-- generated on 2023-03-23 16:30:10 by Eclipse SUMO duarouter Version 1.14.1
<configuration xmlns:xsi="http://www.w3.org/2001/XMLSchema-instance" xsi:noNamespaceSchemaLocation="http://sumo.dlr.de/xsd/duarouterConfiguration.xsd">

    <input>
        <net-file value="net.xml"/>
        <route-files value="trips.trips.xml"/>
    </input>

    <output>
        <output-file value="trips.trips.xml.tmp"/>
        <alternatives-output value="NUL"/>
        <write-trips value="true"/>
    </output>

    <time>
        <begin value="0"/>
        <end value="200"/>
    </time>

    <report>
        <no-warnings value="true"/>
        <ignore-errors value="true"/>
        <no-step-log value="true"/>
    </report>

</configuration>
-->

<routes xmlns:xsi="http://www.w3.org/2001/XMLSchema-instance" xsi:noNamespaceSchemaLocation="http://sumo.dlr.de/xsd/routes_file.xsd">
    <vType id="truck_truck" vClass="truck" lcKeepRight="0" carFollowModel="Krauss"/>
    <trip id="truck0" type="truck_truck" depart="0.00" departSpeed="27.00" from="E1" to="E7"/>
    <trip id="truck1" type="truck_truck" depart="0.03" departSpeed="27.00" from="E1" to="E7"/>
    <trip id="truck2" type="truck_truck" depart="0.06" departSpeed="27.00" from="E1" to="E7"/>
    <trip id="truck3" type="truck_truck" depart="0.09" departSpeed="27.00" from="E1" to="E7"/>
    <trip id="truck4" type="truck_truck" depart="0.12" departSpeed="27.00" from="R1" to="E7"/>
    <trip id="truck5" type="truck_truck" depart="0.15" departSpeed="27.00" from="R1" to="E7"/>
    <trip id="truck6" type="truck_truck" depart="0.18" departSpeed="27.00" from="E1" to="E7"/>
    <trip id="truck7" type="truck_truck" depart="0.21" departSpeed="27.00" from="E1" to="E7"/>
    <trip id="truck8" type="truck_truck" depart="0.24" departSpeed="27.00" from="E1" to="E7"/>
    <trip id="truck9" type="truck_truck" depart="0.27" departSpeed="27.00" from="R1" to="E7"/>
    <trip id="truck10" type="truck_truck" depart="0.30" departSpeed="27.00" from="E1" to="E7"/>
    <trip id="truck11" type="truck_truck" depart="0.33" departSpeed="27.00" from="E1" to="E7"/>
    <trip id="truck12" type="truck_truck" depart="0.36" departSpeed="27.00" from="E1" to="E7"/>
    <trip id="truck13" type="truck_truck" depart="0.39" departSpeed="27.00" from="E1" to="E7"/>
    <trip id="truck14" type="truck_truck" depart="0.42" departSpeed="27.00" from="E1" to="E7"/>
    <trip id="truck15" type="truck_truck" depart="0.45" departSpeed="27.00" from="E1" to="E7"/>
    <trip id="truck16" type="truck_truck" depart="0.48" departSpeed="27.00" from="E1" to="E7"/>
    <trip id="truck17" type="truck_truck" depart="0.51" departSpeed="27.00" from="R1" to="E7"/>
    <trip id="truck18" type="truck_truck" depart="0.54" departSpeed="27.00" from="E1" to="E7"/>
    <trip id="truck19" type="truck_truck" depart="0.57" departSpeed="27.00" from="E1" to="E7"/>
    <trip id="truck20" type="truck_truck" depart="0.60" departSpeed="27.00" from="E1" to="E7"/>
    <trip id="truck21" type="truck_truck" depart="0.63" departSpeed="27.00" from="E1" to="E7"/>
    <trip id="truck22" type="truck_truck" depart="0.66" departSpeed="27.00" from="E1" to="E7"/>
    <trip id="truck23" type="truck_truck" depart="0.69" departSpeed="27.00" from="E1" to="E7"/>
    <trip id="truck24" type="truck_truck" depart="0.72" departSpeed="27.00" from="R1" to="E7"/>
    <trip id="truck25" type="truck_truck" depart="0.75" departSpeed="27.00" from="E1" to="E7"/>
    <trip id="truck26" type="truck_truck" depart="0.78" departSpeed="27.00" from="R1" to="E7"/>
    <trip id="truck27" type="truck_truck" depart="0.81" departSpeed="27.00" from="E1" to="E7"/>
    <trip id="truck28" type="truck_truck" depart="0.84" departSpeed="27.00" from="E1" to="E7"/>
    <trip id="truck29" type="truck_truck" depart="0.87" departSpeed="27.00" from="E1" to="E7"/>
    <trip id="truck30" type="truck_truck" depart="0.90" departSpeed="27.00" from="E1" to="E7"/>
    <trip id="truck31" type="truck_truck" depart="0.93" departSpeed="27.00" from="E1" to="E7"/>
    <trip id="truck32" type="truck_truck" depart="0.96" departSpeed="27.00" from="E1" to="E7"/>
    <trip id="truck33" type="truck_truck" depart="0.99" departSpeed="27.00" from="E1" to="E7"/>
    <trip id="truck34" type="truck_truck" depart="1.02" departSpeed="27.00" from="E1" to="E7"/>
    <trip id="truck35" type="truck_truck" depart="1.05" departSpeed="27.00" from="E1" to="E7"/>
    <trip id="truck36" type="truck_truck" depart="1.08" departSpeed="27.00" from="E1" to="E7"/>
    <trip id="truck37" type="truck_truck" depart="1.11" departSpeed="27.00" from="E1" to="E7"/>
    <trip id="truck38" type="truck_truck" depart="1.14" departSpeed="27.00" from="E1" to="E7"/>
    <trip id="truck39" type="truck_truck" depart="1.17" departSpeed="27.00" from="E1" to="E7"/>
    <trip id="truck40" type="truck_truck" depart="1.20" departSpeed="27.00" from="R1" to="E7"/>
    <trip id="truck41" type="truck_truck" depart="1.23" departSpeed="27.00" from="E1" to="E7"/>
    <trip id="truck42" type="truck_truck" depart="1.26" departSpeed="27.00" from="E1" to="E7"/>
    <trip id="truck43" type="truck_truck" depart="1.29" departSpeed="27.00" from="E1" to="E7"/>
    <trip id="truck44" type="truck_truck" depart="1.32" departSpeed="27.00" from="E1" to="E7"/>
    <trip id="truck45" type="truck_truck" depart="1.35" departSpeed="27.00" from="E1" to="E7"/>
    <trip id="truck46" type="truck_truck" depart="1.38" departSpeed="27.00" from="E1" to="E7"/>
    <trip id="truck47" type="truck_truck" depart="1.41" departSpeed="27.00" from="E1" to="E7"/>
    <trip id="truck48" type="truck_truck" depart="1.44" departSpeed="27.00" from="E1" to="E7"/>
    <trip id="truck49" type="truck_truck" depart="1.47" departSpeed="27.00" from="E1" to="E7"/>
    <trip id="truck50" type="truck_truck" depart="1.50" departSpeed="27.00" from="E1" to="E7"/>
    <trip id="truck51" type="truck_truck" depart="1.53" departSpeed="27.00" from="E1" to="E7"/>
    <trip id="truck52" type="truck_truck" depart="1.56" departSpeed="27.00" from="R1" to="E7"/>
    <trip id="truck53" type="truck_truck" depart="1.59" departSpeed="27.00" from="E1" to="E7"/>
    <trip id="truck54" type="truck_truck" depart="1.62" departSpeed="27.00" from="E1" to="E7"/>
    <trip id="truck55" type="truck_truck" depart="1.65" departSpeed="27.00" from="E1" to="E7"/>
    <trip id="truck56" type="truck_truck" depart="1.68" departSpeed="27.00" from="E1" to="E7"/>
    <trip id="truck57" type="truck_truck" depart="1.71" departSpeed="27.00" from="E1" to="E7"/>
    <trip id="truck58" type="truck_truck" depart="1.74" departSpeed="27.00" from="E1" to="E7"/>
    <trip id="truck59" type="truck_truck" depart="1.77" departSpeed="27.00" from="E1" to="E7"/>
    <trip id="truck60" type="truck_truck" depart="1.80" departSpeed="27.00" from="E1" to="E7"/>
    <trip id="truck61" type="truck_truck" depart="1.83" departSpeed="27.00" from="E1" to="E7"/>
    <trip id="truck62" type="truck_truck" depart="1.86" departSpeed="27.00" from="E1" to="E7"/>
    <trip id="truck63" type="truck_truck" depart="1.89" departSpeed="27.00" from="E1" to="E7"/>
    <trip id="truck64" type="truck_truck" depart="1.92" departSpeed="27.00" from="E1" to="E7"/>
    <trip id="truck65" type="truck_truck" depart="1.95" departSpeed="27.00" from="E1" to="E7"/>
    <trip id="truck66" type="truck_truck" depart="1.98" departSpeed="27.00" from="E1" to="E7"/>
    <trip id="truck67" type="truck_truck" depart="2.01" departSpeed="27.00" from="E1" to="E7"/>
    <trip id="truck68" type="truck_truck" depart="2.04" departSpeed="27.00" from="E1" to="E7"/>
    <trip id="truck69" type="truck_truck" depart="2.07" departSpeed="27.00" from="E1" to="E7"/>
    <trip id="truck70" type="truck_truck" depart="2.10" departSpeed="27.00" from="E1" to="E7"/>
    <trip id="truck71" type="truck_truck" depart="2.13" departSpeed="27.00" from="E1" to="E7"/>
    <trip id="truck72" type="truck_truck" depart="2.16" departSpeed="27.00" from="E1" to="E7"/>
    <trip id="truck73" type="truck_truck" depart="2.19" departSpeed="27.00" from="E1" to="E7"/>
    <trip id="truck74" type="truck_truck" depart="2.22" departSpeed="27.00" from="E1" to="E7"/>
    <trip id="truck75" type="truck_truck" depart="2.25" departSpeed="27.00" from="E1" to="E7"/>
    <trip id="truck76" type="truck_truck" depart="2.28" departSpeed="27.00" from="E1" to="E7"/>
    <trip id="truck77" type="truck_truck" depart="2.31" departSpeed="27.00" from="E1" to="E7"/>
    <trip id="truck78" type="truck_truck" depart="2.34" departSpeed="27.00" from="E1" to="E7"/>
    <trip id="truck79" type="truck_truck" depart="2.37" departSpeed="27.00" from="E1" to="E7"/>
    <trip id="truck80" type="truck_truck" depart="2.40" departSpeed="27.00" from="R1" to="E7"/>
    <trip id="truck81" type="truck_truck" depart="2.43" departSpeed="27.00" from="E1" to="E7"/>
    <trip id="truck82" type="truck_truck" depart="2.46" departSpeed="27.00" from="E1" to="E7"/>
    <trip id="truck83" type="truck_truck" depart="2.49" departSpeed="27.00" from="E1" to="E7"/>
    <trip id="truck84" type="truck_truck" depart="2.52" departSpeed="27.00" from="E1" to="E7"/>
    <trip id="truck85" type="truck_truck" depart="2.55" departSpeed="27.00" from="E1" to="E7"/>
    <trip id="truck86" type="truck_truck" depart="2.58" departSpeed="27.00" from="R1" to="E7"/>
    <trip id="truck87" type="truck_truck" depart="2.61" departSpeed="27.00" from="R1" to="E7"/>
    <trip id="truck88" type="truck_truck" depart="2.64" departSpeed="27.00" from="E1" to="E7"/>
    <trip id="truck89" type="truck_truck" depart="2.67" departSpeed="27.00" from="E1" to="E7"/>
    <trip id="truck90" type="truck_truck" depart="2.70" departSpeed="27.00" from="E1" to="E7"/>
    <trip id="truck91" type="truck_truck" depart="2.73" departSpeed="27.00" from="E1" to="E7"/>
    <trip id="truck92" type="truck_truck" depart="2.76" departSpeed="27.00" from="E1" to="E7"/>
    <trip id="truck93" type="truck_truck" depart="2.79" departSpeed="27.00" from="E1" to="E7"/>
    <trip id="truck94" type="truck_truck" depart="2.82" departSpeed="27.00" from="E1" to="E7"/>
    <trip id="truck95" type="truck_truck" depart="2.85" departSpeed="27.00" from="E1" to="E7"/>
    <trip id="truck96" type="truck_truck" depart="2.88" departSpeed="27.00" from="E1" to="E7"/>
    <trip id="truck97" type="truck_truck" depart="2.91" departSpeed="27.00" from="E1" to="E7"/>
    <trip id="truck98" type="truck_truck" depart="2.94" departSpeed="27.00" from="E1" to="E7"/>
    <trip id="truck99" type="truck_truck" depart="2.97" departSpeed="27.00" from="E1" to="E7"/>
    <trip id="truck100" type="truck_truck" depart="3.00" departSpeed="27.00" from="E1" to="E7"/>
    <trip id="truck101" type="truck_truck" depart="3.03" departSpeed="27.00" from="E1" to="E7"/>
    <trip id="truck102" type="truck_truck" depart="3.06" departSpeed="27.00" from="E1" to="E7"/>
    <trip id="truck103" type="truck_truck" depart="3.09" departSpeed="27.00" from="E1" to="E7"/>
    <trip id="truck104" type="truck_truck" depart="3.12" departSpeed="27.00" from="E1" to="E7"/>
    <trip id="truck105" type="truck_truck" depart="3.15" departSpeed="27.00" from="E1" to="E7"/>
    <trip id="truck106" type="truck_truck" depart="3.18" departSpeed="27.00" from="E1" to="E7"/>
    <trip id="truck107" type="truck_truck" depart="3.21" departSpeed="27.00" from="E1" to="E7"/>
    <trip id="truck108" type="truck_truck" depart="3.24" departSpeed="27.00" from="E1" to="E7"/>
    <trip id="truck109" type="truck_truck" depart="3.27" departSpeed="27.00" from="R1" to="E7"/>
    <trip id="truck110" type="truck_truck" depart="3.30" departSpeed="27.00" from="E1" to="E7"/>
    <trip id="truck111" type="truck_truck" depart="3.33" departSpeed="27.00" from="E1" to="E7"/>
    <trip id="truck112" type="truck_truck" depart="3.36" departSpeed="27.00" from="E1" to="E7"/>
    <trip id="truck113" type="truck_truck" depart="3.39" departSpeed="27.00" from="E1" to="E7"/>
    <trip id="truck114" type="truck_truck" depart="3.42" departSpeed="27.00" from="E1" to="E7"/>
    <trip id="truck115" type="truck_truck" depart="3.45" departSpeed="27.00" from="R1" to="E7"/>
    <trip id="truck116" type="truck_truck" depart="3.48" departSpeed="27.00" from="E1" to="E7"/>
    <trip id="truck117" type="truck_truck" depart="3.51" departSpeed="27.00" from="E1" to="E7"/>
    <trip id="truck118" type="truck_truck" depart="3.54" departSpeed="27.00" from="E1" to="E7"/>
    <trip id="truck119" type="truck_truck" depart="3.57" departSpeed="27.00" from="R1" to="E7"/>
    <trip id="truck120" type="truck_truck" depart="3.60" departSpeed="27.00" from="E1" to="E7"/>
    <trip id="truck121" type="truck_truck" depart="3.63" departSpeed="27.00" from="E1" to="E7"/>
    <trip id="truck122" type="truck_truck" depart="3.66" departSpeed="27.00" from="E1" to="E7"/>
    <trip id="truck123" type="truck_truck" depart="3.69" departSpeed="27.00" from="E1" to="E7"/>
    <trip id="truck124" type="truck_truck" depart="3.72" departSpeed="27.00" from="E1" to="E7"/>
    <trip id="truck125" type="truck_truck" depart="3.75" departSpeed="27.00" from="R1" to="E7"/>
    <trip id="truck126" type="truck_truck" depart="3.78" departSpeed="27.00" from="E1" to="E7"/>
    <trip id="truck127" type="truck_truck" depart="3.81" departSpeed="27.00" from="E1" to="E7"/>
    <trip id="truck128" type="truck_truck" depart="3.84" departSpeed="27.00" from="E1" to="E7"/>
    <trip id="truck129" type="truck_truck" depart="3.87" departSpeed="27.00" from="E1" to="E7"/>
    <trip id="truck130" type="truck_truck" depart="3.90" departSpeed="27.00" from="R1" to="E7"/>
    <trip id="truck131" type="truck_truck" depart="3.93" departSpeed="27.00" from="R1" to="E7"/>
    <trip id="truck132" type="truck_truck" depart="3.96" departSpeed="27.00" from="E1" to="E7"/>
    <trip id="truck133" type="truck_truck" depart="3.99" departSpeed="27.00" from="E1" to="E7"/>
    <trip id="truck134" type="truck_truck" depart="4.02" departSpeed="27.00" from="E1" to="E7"/>
    <trip id="truck135" type="truck_truck" depart="4.05" departSpeed="27.00" from="R1" to="E7"/>
    <trip id="truck136" type="truck_truck" depart="4.08" departSpeed="27.00" from="E1" to="E7"/>
    <trip id="truck137" type="truck_truck" depart="4.11" departSpeed="27.00" from="E1" to="E7"/>
    <trip id="truck138" type="truck_truck" depart="4.14" departSpeed="27.00" from="E1" to="E7"/>
    <trip id="truck139" type="truck_truck" depart="4.17" departSpeed="27.00" from="R1" to="E7"/>
    <trip id="truck140" type="truck_truck" depart="4.20" departSpeed="27.00" from="E1" to="E7"/>
    <trip id="truck141" type="truck_truck" depart="4.23" departSpeed="27.00" from="E1" to="E7"/>
    <trip id="truck142" type="truck_truck" depart="4.26" departSpeed="27.00" from="E1" to="E7"/>
    <trip id="truck143" type="truck_truck" depart="4.29" departSpeed="27.00" from="E1" to="E7"/>
    <trip id="truck144" type="truck_truck" depart="4.32" departSpeed="27.00" from="E1" to="E7"/>
    <trip id="truck145" type="truck_truck" depart="4.35" departSpeed="27.00" from="E1" to="E7"/>
    <trip id="truck146" type="truck_truck" depart="4.38" departSpeed="27.00" from="E1" to="E7"/>
    <trip id="truck147" type="truck_truck" depart="4.41" departSpeed="27.00" from="E1" to="E7"/>
    <trip id="truck148" type="truck_truck" depart="4.44" departSpeed="27.00" from="E1" to="E7"/>
    <trip id="truck149" type="truck_truck" depart="4.47" departSpeed="27.00" from="E1" to="E7"/>
    <trip id="truck150" type="truck_truck" depart="4.50" departSpeed="27.00" from="E1" to="E7"/>
    <trip id="truck151" type="truck_truck" depart="4.53" departSpeed="27.00" from="E1" to="E7"/>
    <trip id="truck152" type="truck_truck" depart="4.56" departSpeed="27.00" from="E1" to="E7"/>
    <trip id="truck153" type="truck_truck" depart="4.59" departSpeed="27.00" from="R1" to="E7"/>
    <trip id="truck154" type="truck_truck" depart="4.62" departSpeed="27.00" from="E1" to="E7"/>
    <trip id="truck155" type="truck_truck" depart="4.65" departSpeed="27.00" from="E1" to="E7"/>
    <trip id="truck156" type="truck_truck" depart="4.68" departSpeed="27.00" from="E1" to="E7"/>
    <trip id="truck157" type="truck_truck" depart="4.71" departSpeed="27.00" from="E1" to="E7"/>
    <trip id="truck158" type="truck_truck" depart="4.74" departSpeed="27.00" from="E1" to="E7"/>
    <trip id="truck159" type="truck_truck" depart="4.77" departSpeed="27.00" from="E1" to="E7"/>
    <trip id="truck160" type="truck_truck" depart="4.80" departSpeed="27.00" from="E1" to="E7"/>
    <trip id="truck161" type="truck_truck" depart="4.83" departSpeed="27.00" from="E1" to="E7"/>
    <trip id="truck162" type="truck_truck" depart="4.86" departSpeed="27.00" from="E1" to="E7"/>
    <trip id="truck163" type="truck_truck" depart="4.89" departSpeed="27.00" from="E1" to="E7"/>
    <trip id="truck164" type="truck_truck" depart="4.92" departSpeed="27.00" from="R1" to="E7"/>
    <trip id="truck165" type="truck_truck" depart="4.95" departSpeed="27.00" from="E1" to="E7"/>
    <trip id="truck166" type="truck_truck" depart="4.98" departSpeed="27.00" from="R1" to="E7"/>
    <trip id="truck167" type="truck_truck" depart="5.01" departSpeed="27.00" from="E1" to="E7"/>
    <trip id="truck168" type="truck_truck" depart="5.04" departSpeed="27.00" from="E1" to="E7"/>
    <trip id="truck169" type="truck_truck" depart="5.07" departSpeed="27.00" from="E1" to="E7"/>
    <trip id="truck170" type="truck_truck" depart="5.10" departSpeed="27.00" from="E1" to="E7"/>
    <trip id="truck171" type="truck_truck" depart="5.13" departSpeed="27.00" from="E1" to="E7"/>
    <trip id="truck172" type="truck_truck" depart="5.16" departSpeed="27.00" from="E1" to="E7"/>
    <trip id="truck173" type="truck_truck" depart="5.19" departSpeed="27.00" from="E1" to="E7"/>
    <trip id="truck174" type="truck_truck" depart="5.22" departSpeed="27.00" from="E1" to="E7"/>
    <trip id="truck175" type="truck_truck" depart="5.25" departSpeed="27.00" from="E1" to="E7"/>
    <trip id="truck176" type="truck_truck" depart="5.28" departSpeed="27.00" from="E1" to="E7"/>
    <trip id="truck177" type="truck_truck" depart="5.31" departSpeed="27.00" from="E1" to="E7"/>
    <trip id="truck178" type="truck_truck" depart="5.34" departSpeed="27.00" from="R1" to="E7"/>
    <trip id="truck179" type="truck_truck" depart="5.37" departSpeed="27.00" from="R1" to="E7"/>
    <trip id="truck180" type="truck_truck" depart="5.40" departSpeed="27.00" from="E1" to="E7"/>
    <trip id="truck181" type="truck_truck" depart="5.43" departSpeed="27.00" from="E1" to="E7"/>
    <trip id="truck182" type="truck_truck" depart="5.46" departSpeed="27.00" from="E1" to="E7"/>
    <trip id="truck183" type="truck_truck" depart="5.49" departSpeed="27.00" from="E1" to="E7"/>
    <trip id="truck184" type="truck_truck" depart="5.52" departSpeed="27.00" from="E1" to="E7"/>
    <trip id="truck185" type="truck_truck" depart="5.55" departSpeed="27.00" from="E1" to="E7"/>
    <trip id="truck186" type="truck_truck" depart="5.58" departSpeed="27.00" from="E1" to="E7"/>
    <trip id="truck187" type="truck_truck" depart="5.61" departSpeed="27.00" from="E1" to="E7"/>
    <trip id="truck188" type="truck_truck" depart="5.64" departSpeed="27.00" from="E1" to="E7"/>
    <trip id="truck189" type="truck_truck" depart="5.67" departSpeed="27.00" from="E1" to="E7"/>
    <trip id="truck190" type="truck_truck" depart="5.70" departSpeed="27.00" from="E1" to="E7"/>
    <trip id="truck191" type="truck_truck" depart="5.73" departSpeed="27.00" from="E1" to="E7"/>
    <trip id="truck192" type="truck_truck" depart="5.76" departSpeed="27.00" from="E1" to="E7"/>
    <trip id="truck193" type="truck_truck" depart="5.79" departSpeed="27.00" from="E1" to="E7"/>
    <trip id="truck194" type="truck_truck" depart="5.82" departSpeed="27.00" from="E1" to="E7"/>
    <trip id="truck195" type="truck_truck" depart="5.85" departSpeed="27.00" from="R1" to="E7"/>
    <trip id="truck196" type="truck_truck" depart="5.88" departSpeed="27.00" from="R1" to="E7"/>
    <trip id="truck197" type="truck_truck" depart="5.91" departSpeed="27.00" from="E1" to="E7"/>
    <trip id="truck198" type="truck_truck" depart="5.94" departSpeed="27.00" from="E1" to="E7"/>
    <trip id="truck199" type="truck_truck" depart="5.97" departSpeed="27.00" from="E1" to="E7"/>
    <trip id="truck200" type="truck_truck" depart="6.00" departSpeed="27.00" from="E1" to="E7"/>
    <trip id="truck201" type="truck_truck" depart="6.03" departSpeed="27.00" from="E1" to="E7"/>
    <trip id="truck202" type="truck_truck" depart="6.06" departSpeed="27.00" from="R1" to="E7"/>
    <trip id="truck203" type="truck_truck" depart="6.09" departSpeed="27.00" from="E1" to="E7"/>
    <trip id="truck204" type="truck_truck" depart="6.12" departSpeed="27.00" from="E1" to="E7"/>
    <trip id="truck205" type="truck_truck" depart="6.15" departSpeed="27.00" from="E1" to="E7"/>
    <trip id="truck206" type="truck_truck" depart="6.18" departSpeed="27.00" from="E1" to="E7"/>
    <trip id="truck207" type="truck_truck" depart="6.21" departSpeed="27.00" from="R1" to="E7"/>
    <trip id="truck208" type="truck_truck" depart="6.24" departSpeed="27.00" from="R1" to="E7"/>
    <trip id="truck209" type="truck_truck" depart="6.27" departSpeed="27.00" from="E1" to="E7"/>
    <trip id="truck210" type="truck_truck" depart="6.30" departSpeed="27.00" from="E1" to="E7"/>
    <trip id="truck211" type="truck_truck" depart="6.33" departSpeed="27.00" from="R1" to="E7"/>
    <trip id="truck212" type="truck_truck" depart="6.36" departSpeed="27.00" from="E1" to="E7"/>
    <trip id="truck213" type="truck_truck" depart="6.39" departSpeed="27.00" from="R1" to="E7"/>
    <trip id="truck214" type="truck_truck" depart="6.42" departSpeed="27.00" from="E1" to="E7"/>
    <trip id="truck215" type="truck_truck" depart="6.45" departSpeed="27.00" from="E1" to="E7"/>
    <trip id="truck216" type="truck_truck" depart="6.48" departSpeed="27.00" from="E1" to="E7"/>
    <trip id="truck217" type="truck_truck" depart="6.51" departSpeed="27.00" from="E1" to="E7"/>
    <trip id="truck218" type="truck_truck" depart="6.54" departSpeed="27.00" from="R1" to="E7"/>
    <trip id="truck219" type="truck_truck" depart="6.57" departSpeed="27.00" from="E1" to="E7"/>
    <trip id="truck220" type="truck_truck" depart="6.60" departSpeed="27.00" from="E1" to="E7"/>
    <trip id="truck221" type="truck_truck" depart="6.63" departSpeed="27.00" from="E1" to="E7"/>
    <trip id="truck222" type="truck_truck" depart="6.66" departSpeed="27.00" from="E1" to="E7"/>
    <trip id="truck223" type="truck_truck" depart="6.69" departSpeed="27.00" from="R1" to="E7"/>
    <trip id="truck224" type="truck_truck" depart="6.72" departSpeed="27.00" from="E1" to="E7"/>
    <trip id="truck225" type="truck_truck" depart="6.75" departSpeed="27.00" from="E1" to="E7"/>
    <trip id="truck226" type="truck_truck" depart="6.78" departSpeed="27.00" from="E1" to="E7"/>
    <trip id="truck227" type="truck_truck" depart="6.81" departSpeed="27.00" from="E1" to="E7"/>
    <trip id="truck228" type="truck_truck" depart="6.84" departSpeed="27.00" from="R1" to="E7"/>
    <trip id="truck229" type="truck_truck" depart="6.87" departSpeed="27.00" from="E1" to="E7"/>
    <trip id="truck230" type="truck_truck" depart="6.90" departSpeed="27.00" from="E1" to="E7"/>
    <trip id="truck231" type="truck_truck" depart="6.93" departSpeed="27.00" from="E1" to="E7"/>
    <trip id="truck232" type="truck_truck" depart="6.96" departSpeed="27.00" from="R1" to="E7"/>
    <trip id="truck233" type="truck_truck" depart="6.99" departSpeed="27.00" from="R1" to="E7"/>
    <trip id="truck234" type="truck_truck" depart="7.02" departSpeed="27.00" from="R1" to="E7"/>
    <trip id="truck235" type="truck_truck" depart="7.05" departSpeed="27.00" from="E1" to="E7"/>
    <trip id="truck236" type="truck_truck" depart="7.08" departSpeed="27.00" from="E1" to="E7"/>
    <trip id="truck237" type="truck_truck" depart="7.11" departSpeed="27.00" from="E1" to="E7"/>
    <trip id="truck238" type="truck_truck" depart="7.14" departSpeed="27.00" from="E1" to="E7"/>
    <trip id="truck239" type="truck_truck" depart="7.17" departSpeed="27.00" from="E1" to="E7"/>
    <trip id="truck240" type="truck_truck" depart="7.20" departSpeed="27.00" from="R1" to="E7"/>
    <trip id="truck241" type="truck_truck" depart="7.23" departSpeed="27.00" from="E1" to="E7"/>
    <trip id="truck242" type="truck_truck" depart="7.26" departSpeed="27.00" from="E1" to="E7"/>
    <trip id="truck243" type="truck_truck" depart="7.29" departSpeed="27.00" from="R1" to="E7"/>
    <trip id="truck244" type="truck_truck" depart="7.32" departSpeed="27.00" from="E1" to="E7"/>
    <trip id="truck245" type="truck_truck" depart="7.35" departSpeed="27.00" from="E1" to="E7"/>
    <trip id="truck246" type="truck_truck" depart="7.38" departSpeed="27.00" from="E1" to="E7"/>
    <trip id="truck247" type="truck_truck" depart="7.41" departSpeed="27.00" from="E1" to="E7"/>
    <trip id="truck248" type="truck_truck" depart="7.44" departSpeed="27.00" from="E1" to="E7"/>
    <trip id="truck249" type="truck_truck" depart="7.47" departSpeed="27.00" from="E1" to="E7"/>
    <trip id="truck250" type="truck_truck" depart="7.50" departSpeed="27.00" from="E1" to="E7"/>
    <trip id="truck251" type="truck_truck" depart="7.53" departSpeed="27.00" from="E1" to="E7"/>
    <trip id="truck252" type="truck_truck" depart="7.56" departSpeed="27.00" from="E1" to="E7"/>
    <trip id="truck253" type="truck_truck" depart="7.59" departSpeed="27.00" from="R1" to="E7"/>
    <trip id="truck254" type="truck_truck" depart="7.62" departSpeed="27.00" from="E1" to="E7"/>
    <trip id="truck255" type="truck_truck" depart="7.65" departSpeed="27.00" from="E1" to="E7"/>
    <trip id="truck256" type="truck_truck" depart="7.68" departSpeed="27.00" from="E1" to="E7"/>
    <trip id="truck257" type="truck_truck" depart="7.71" departSpeed="27.00" from="E1" to="E7"/>
    <trip id="truck258" type="truck_truck" depart="7.74" departSpeed="27.00" from="E1" to="E7"/>
    <trip id="truck259" type="truck_truck" depart="7.77" departSpeed="27.00" from="E1" to="E7"/>
    <trip id="truck260" type="truck_truck" depart="7.80" departSpeed="27.00" from="E1" to="E7"/>
    <trip id="truck261" type="truck_truck" depart="7.83" departSpeed="27.00" from="R1" to="E7"/>
    <trip id="truck262" type="truck_truck" depart="7.86" departSpeed="27.00" from="R1" to="E7"/>
    <trip id="truck263" type="truck_truck" depart="7.89" departSpeed="27.00" from="R1" to="E7"/>
    <trip id="truck264" type="truck_truck" depart="7.92" departSpeed="27.00" from="E1" to="E7"/>
    <trip id="truck265" type="truck_truck" depart="7.95" departSpeed="27.00" from="E1" to="E7"/>
    <trip id="truck266" type="truck_truck" depart="7.98" departSpeed="27.00" from="E1" to="E7"/>
    <trip id="truck267" type="truck_truck" depart="8.01" departSpeed="27.00" from="E1" to="E7"/>
    <trip id="truck268" type="truck_truck" depart="8.04" departSpeed="27.00" from="E1" to="E7"/>
    <trip id="truck269" type="truck_truck" depart="8.07" departSpeed="27.00" from="E1" to="E7"/>
    <trip id="truck270" type="truck_truck" depart="8.10" departSpeed="27.00" from="E1" to="E7"/>
    <trip id="truck271" type="truck_truck" depart="8.13" departSpeed="27.00" from="E1" to="E7"/>
    <trip id="truck272" type="truck_truck" depart="8.16" departSpeed="27.00" from="E1" to="E7"/>
    <trip id="truck273" type="truck_truck" depart="8.19" departSpeed="27.00" from="R1" to="E7"/>
    <trip id="truck274" type="truck_truck" depart="8.22" departSpeed="27.00" from="E1" to="E7"/>
    <trip id="truck275" type="truck_truck" depart="8.25" departSpeed="27.00" from="E1" to="E7"/>
    <trip id="truck276" type="truck_truck" depart="8.28" departSpeed="27.00" from="E1" to="E7"/>
    <trip id="truck277" type="truck_truck" depart="8.31" departSpeed="27.00" from="E1" to="E7"/>
    <trip id="truck278" type="truck_truck" depart="8.34" departSpeed="27.00" from="E1" to="E7"/>
    <trip id="truck279" type="truck_truck" depart="8.37" departSpeed="27.00" from="E1" to="E7"/>
    <trip id="truck280" type="truck_truck" depart="8.40" departSpeed="27.00" from="E1" to="E7"/>
    <trip id="truck281" type="truck_truck" depart="8.43" departSpeed="27.00" from="R1" to="E7"/>
    <trip id="truck282" type="truck_truck" depart="8.46" departSpeed="27.00" from="R1" to="E7"/>
    <trip id="truck283" type="truck_truck" depart="8.49" departSpeed="27.00" from="E1" to="E7"/>
    <trip id="truck284" type="truck_truck" depart="8.52" departSpeed="27.00" from="R1" to="E7"/>
    <trip id="truck285" type="truck_truck" depart="8.55" departSpeed="27.00" from="E1" to="E7"/>
    <trip id="truck286" type="truck_truck" depart="8.58" departSpeed="27.00" from="E1" to="E7"/>
    <trip id="truck287" type="truck_truck" depart="8.61" departSpeed="27.00" from="E1" to="E7"/>
    <trip id="truck288" type="truck_truck" depart="8.64" departSpeed="27.00" from="E1" to="E7"/>
    <trip id="truck289" type="truck_truck" depart="8.67" departSpeed="27.00" from="E1" to="E7"/>
    <trip id="truck290" type="truck_truck" depart="8.70" departSpeed="27.00" from="E1" to="E7"/>
    <trip id="truck291" type="truck_truck" depart="8.73" departSpeed="27.00" from="E1" to="E7"/>
    <trip id="truck292" type="truck_truck" depart="8.76" departSpeed="27.00" from="R1" to="E7"/>