<?xml version="1.0" ?>
<additional xmlns:xsi="http://www.w3.org/2001/XMLSchema-instance" xsi:noNamespaceSchemaLocation="http://sumo.dlr.de/xsd/additional_file.xsd">
	<vTypeDistribution id="car">
		<vType id="car0" sigma="0.500" tau="1.745" length="4.501" accel="2.224" decel="5.130" emergencyDecel="8.766" maxSpeed="37.975" minGap="2.535" vClass="passenger" carFollowModel="EIDM" lcStrategic="500" lcKeepRight="0" lcOvertakeRight="1" lcCooperative="1" lcSpeedGainRight="1" lcLookaheadLeft="250"/>
		<vType id="car1" sigma="0.500" tau="2.981" length="5.287" accel="3.236" decel="4.733" emergencyDecel="8.944" maxSpeed="42.554" minGap="3.310" vClass="passenger" carFollowModel="EIDM" lcStrategic="500" lcKeepRight="0" lcOvertakeRight="1" lcCooperative="1" lcSpeedGainRight="1" lcLookaheadLeft="250"/>
		<vType id="car2" sigma="0.500" tau="1.068" length="5.077" accel="3.382" decel="5.346" emergencyDecel="8.777" maxSpeed="43.614" minGap="3.001" vClass="passenger" carFollowModel="EIDM" lcStrategic="500" lcKeepRight="0" lcOvertakeRight="1" lcCooperative="1" lcSpeedGainRight="1" lcLookaheadLeft="250"/>
		<vType id="car3" sigma="0.500" tau="0.542" length="4.788" accel="2.312" decel="5.303" emergencyDecel="8.757" maxSpeed="38.344" minGap="2.747" vClass="passenger" carFollowModel="EIDM" lcStrategic="500" lcKeepRight="0" lcOvertakeRight="1" lcCooperative="1" lcSpeedGainRight="1" lcLookaheadLeft="250"/>
		<vType id="car4" sigma="0.500" tau="2.326" length="4.314" accel="2.128" decel="5.435" emergencyDecel="8.994" maxSpeed="38.652" minGap="2.866" vClass="passenger" carFollowModel="EIDM" lcStrategic="500" lcKeepRight="0" lcOvertakeRight="1" lcCooperative="1" lcSpeedGainRight="1" lcLookaheadLeft="250"/>
		<vType id="car5" sigma="0.500" tau="1.840" length="4.363" accel="3.074" decel="5.004" emergencyDecel="8.897" maxSpeed="43.675" minGap="3.426" vClass="passenger" carFollowModel="EIDM" lcStrategic="500" lcKeepRight="0" lcOvertakeRight="1" lcCooperative="1" lcSpeedGainRight="1" lcLookaheadLeft="250"/>
		<vType id="car6" sigma="0.500" tau="1.167" length="4.939" accel="3.342" decel="4.938" emergencyDecel="9.063" maxSpeed="38.523" minGap="2.819" vClass="passenger" carFollowModel="EIDM" lcStrategic="500" lcKeepRight="0" lcOvertakeRight="1" lcCooperative="1" lcSpeedGainRight="1" lcLookaheadLeft="250"/>
		<vType id="car7" sigma="0.500" tau="1.819" length="5.069" accel="2.249" decel="5.454" emergencyDecel="9.111" maxSpeed="39.039" minGap="3.404" vClass="passenger" carFollowModel="EIDM" lcStrategic="500" lcKeepRight="0" lcOvertakeRight="1" lcCooperative="1" lcSpeedGainRight="1" lcLookaheadLeft="250"/>
		<vType id="car8" sigma="0.500" tau="2.580" length="4.225" accel="3.246" decel="4.841" emergencyDecel="8.580" maxSpeed="42.032" minGap="2.762" vClass="passenger" carFollowModel="EIDM" lcStrategic="500" lcKeepRight="0" lcOvertakeRight="1" lcCooperative="1" lcSpeedGainRight="1" lcLookaheadLeft="250"/>
		<vType id="car9" sigma="0.500" tau="3.297" length="4.398" accel="3.492" decel="5.223" emergencyDecel="8.706" maxSpeed="41.112" minGap="3.382" vClass="passenger" carFollowModel="EIDM" lcStrategic="500" lcKeepRight="0" lcOvertakeRight="1" lcCooperative="1" lcSpeedGainRight="1" lcLookaheadLeft="250"/>
		<vType id="car10" sigma="0.500" tau="0.666" length="4.541" accel="2.474" decel="4.600" emergencyDecel="8.797" maxSpeed="36.794" minGap="3.080" vClass="passenger" carFollowModel="EIDM" lcStrategic="500" lcKeepRight="0" lcOvertakeRight="1" lcCooperative="1" lcSpeedGainRight="1" lcLookaheadLeft="250"/>
		<vType id="car11" sigma="0.500" tau="1.878" length="4.561" accel="2.136" decel="4.947" emergencyDecel="8.794" maxSpeed="36.914" minGap="3.199" vClass="passenger" carFollowModel="EIDM" lcStrategic="500" lcKeepRight="0" lcOvertakeRight="1" lcCooperative="1" lcSpeedGainRight="1" lcLookaheadLeft="250"/>
		<vType id="car12" sigma="0.500" tau="0.886" length="4.655" accel="2.107" decel="5.444" emergencyDecel="9.514" maxSpeed="37.324" minGap="3.140" vClass="passenger" carFollowModel="EIDM" lcStrategic="500" lcKeepRight="0" lcOvertakeRight="1" lcCooperative="1" lcSpeedGainRight="1" lcLookaheadLeft="250"/>
		<vType id="car13" sigma="0.500" tau="2.968" length="4.120" accel="3.461" decel="4.798" emergencyDecel="9.175" maxSpeed="42.991" minGap="2.805" vClass="passenger" carFollowModel="EIDM" lcStrategic="500" lcKeepRight="0" lcOvertakeRight="1" lcCooperative="1" lcSpeedGainRight="1" lcLookaheadLeft="250"/>
		<vType id="car14" sigma="0.500" tau="1.516" length="5.243" accel="2.754" decel="5.472" emergencyDecel="8.511" maxSpeed="41.741" minGap="2.919" vClass="passenger" carFollowModel="EIDM" lcStrategic="500" lcKeepRight="0" lcOvertakeRight="1" lcCooperative="1" lcSpeedGainRight="1" lcLookaheadLeft="250"/>
		<vType id="car15" sigma="0.500" tau="2.423" length="4.670" accel="3.448" decel="4.531" emergencyDecel="9.018" maxSpeed="42.463" minGap="3.477" vClass="passenger" carFollowModel="EIDM" lcStrategic="500" lcKeepRight="0" lcOvertakeRight="1" lcCooperative="1" lcSpeedGainRight="1" lcLookaheadLeft="250"/>
		<vType id="car16" sigma="0.500" tau="1.015" length="4.460" accel="3.017" decel="4.775" emergencyDecel="9.248" maxSpeed="39.059" minGap="3.155" vClass="passenger" carFollowModel="EIDM" lcStrategic="500" lcKeepRight="0" lcOvertakeRight="1" lcCooperative="1" lcSpeedGainRight="1" lcLookaheadLeft="250"/>
		<vType id="car17" sigma="0.500" tau="2.652" length="4.958" accel="2.641" decel="5.064" emergencyDecel="8.873" maxSpeed="41.035" minGap="3.227" vClass="passenger" carFollowModel="EIDM" lcStrategic="500" lcKeepRight="0" lcOvertakeRight="1" lcCooperative="1" lcSpeedGainRight="1" lcLookaheadLeft="250"/>
		<vType id="car18" sigma="0.500" tau="2.138" length="5.227" accel="2.477" decel="4.809" emergencyDecel="8.971" maxSpeed="43.599" minGap="3.401" vClass="passenger" carFollowModel="EIDM" lcStrategic="500" lcKeepRight="0" lcOvertakeRight="1" lcCooperative="1" lcSpeedGainRight="1" lcLookaheadLeft="250"/>
		<vType id="car19" sigma="0.500" tau="1.484" length="4.544" accel="2.274" decel="5.120" emergencyDecel="9.233" maxSpeed="37.846" minGap="3.246" vClass="passenger" carFollowModel="EIDM" lcStrategic="500" lcKeepRight="0" lcOvertakeRight="1" lcCooperative="1" lcSpeedGainRight="1" lcLookaheadLeft="250"/>
		<vType id="car20" sigma="0.500" tau="1.599" length="4.670" accel="2.785" decel="5.294" emergencyDecel="9.063" maxSpeed="38.084" minGap="3.414" vClass="passenger" carFollowModel="EIDM" lcStrategic="500" lcKeepRight="0" lcOvertakeRight="1" lcCooperative="1" lcSpeedGainRight="1" lcLookaheadLeft="250"/>
		<vType id="car21" sigma="0.500" tau="0.661" length="4.685" accel="3.080" decel="4.567" emergencyDecel="9.124" maxSpeed="44.636" minGap="3.363" vClass="passenger" carFollowModel="EIDM" lcStrategic="500" lcKeepRight="0" lcOvertakeRight="1" lcCooperative="1" lcSpeedGainRight="1" lcLookaheadLeft="250"/>
		<vType id="car22" sigma="0.500" tau="1.259" length="4.875" accel="2.026" decel="5.423" emergencyDecel="8.825" maxSpeed="45.343" minGap="3.492" vClass="passenger" carFollowModel="EIDM" lcStrategic="500" lcKeepRight="0" lcOvertakeRight="1" lcCooperative="1" lcSpeedGainRight="1" lcLookaheadLeft="250"/>
		<vType id="car23" sigma="0.500" tau="1.338" length="4.688" accel="2.841" decel="5.301" emergencyDecel="8.705" maxSpeed="36.488" minGap="3.284" vClass="passenger" carFollowModel="EIDM" lcStrategic="500" lcKeepRight="0" lcOvertakeRight="1" lcCooperative="1" lcSpeedGainRight="1" lcLookaheadLeft="250"/>
		<vType id="car24" sigma="0.500" tau="0.835" length="5.050" accel="2.636" decel="5.253" emergencyDecel="8.633" maxSpeed="41.876" minGap="3.096" vClass="passenger" carFollowModel="EIDM" lcStrategic="500" lcKeepRight="0" lcOvertakeRight="1" lcCooperative="1" lcSpeedGainRight="1" lcLookaheadLeft="250"/>
		<vType id="car25" sigma="0.500" tau="1.701" length="5.641" accel="3.465" decel="4.677" emergencyDecel="8.933" maxSpeed="40.749" minGap="3.170" vClass="passenger" carFollowModel="EIDM" lcStrategic="500" lcKeepRight="0" lcOvertakeRight="1" lcCooperative="1" lcSpeedGainRight="1" lcLookaheadLeft="250"/>
		<vType id="car26" sigma="0.500" tau="1.847" length="4.317" accel="3.003" decel="5.006" emergencyDecel="9.293" maxSpeed="38.568" minGap="3.236" vClass="passenger" carFollowModel="EIDM" lcStrategic="500" lcKeepRight="0" lcOvertakeRight="1" lcCooperative="1" lcSpeedGainRight="1" lcLookaheadLeft="250"/>
		<vType id="car27" sigma="0.500" tau="2.038" length="4.617" accel="3.320" decel="5.080" emergencyDecel="8.973" maxSpeed="41.820" minGap="2.832" vClass="passenger" carFollowModel="EIDM" lcStrategic="500" lcKeepRight="0" lcOvertakeRight="1" lcCooperative="1" lcSpeedGainRight="1" lcLookaheadLeft="250"/>
		<vType id="car28" sigma="0.500" tau="2.096" length="4.820" accel="3.109" decel="5.234" emergencyDecel="8.697" maxSpeed="45.170" minGap="3.320" vClass="passenger" carFollowModel="EIDM" lcStrategic="500" lcKeepRight="0" lcOvertakeRight="1" lcCooperative="1" lcSpeedGainRight="1" lcLookaheadLeft="250"/>
		<vType id="car29" sigma="0.500" tau="1.241" length="4.535" accel="3.148" decel="4.607" emergencyDecel="9.315" maxSpeed="40.708" minGap="2.534" vClass="passenger" carFollowModel="EIDM" lcStrategic="500" lcKeepRight="0" lcOvertakeRight="1" lcCooperative="1" lcSpeedGainRight="1" lcLookaheadLeft="250"/>
		<vType id="car30" sigma="0.500" tau="0.907" length="5.333" accel="2.545" decel="4.895" emergencyDecel="9.247" maxSpeed="36.756" minGap="3.009" vClass="passenger" carFollowModel="EIDM" lcStrategic="500" lcKeepRight="0" lcOvertakeRight="1" lcCooperative="1" lcSpeedGainRight="1" lcLookaheadLeft="250"/>
		<vType id="car31" sigma="0.500" tau="0.730" length="4.613" accel="3.355" decel="5.343" emergencyDecel="9.087" maxSpeed="37.752" minGap="2.748" vClass="passenger" carFollowModel="EIDM" lcStrategic="500" lcKeepRight="0" lcOvertakeRight="1" lcCooperative="1" lcSpeedGainRight="1" lcLookaheadLeft="250"/>
		<vType id="car32" sigma="0.500" tau="2.135" length="4.627" accel="3.294" decel="5.200" emergencyDecel="8.761" maxSpeed="43.460" minGap="2.735" vClass="passenger" carFollowModel="EIDM" lcStrategic="500" lcKeepRight="0" lcOvertakeRight="1" lcCooperative="1" lcSpeedGainRight="1" lcLookaheadLeft="250"/>
		<vType id="car33" sigma="0.500" tau="1.279" length="5.193" accel="2.323" decel="4.617" emergencyDecel="9.018" maxSpeed="37.833" minGap="2.699" vClass="passenger" carFollowModel="EIDM" lcStrategic="500" lcKeepRight="0" lcOvertakeRight="1" lcCooperative="1" lcSpeedGainRight="1" lcLookaheadLeft="250"/>
		<vType id="car34" sigma="0.500" tau="1.923" length="4.620" accel="2.294" decel="5.074" emergencyDecel="8.776" maxSpeed="43.915" minGap="2.944" vClass="passenger" carFollowModel="EIDM" lcStrategic="500" lcKeepRight="0" lcOvertakeRight="1" lcCooperative="1" lcSpeedGainRight="1" lcLookaheadLeft="250"/>
		<vType id="car35" sigma="0.500" tau="1.666" length="4.869" accel="2.730" decel="4.584" emergencyDecel="8.815" maxSpeed="40.767" minGap="2.501" vClass="passenger" carFollowModel="EIDM" lcStrategic="500" lcKeepRight="0" lcOvertakeRight="1" lcCooperative="1" lcSpeedGainRight="1" lcLookaheadLeft="250"/>
		<vType id="car36" sigma="0.500" tau="1.015" length="5.023" accel="2.466" decel="5.332" emergencyDecel="9.418" maxSpeed="44.321" minGap="3.228" vClass="passenger" carFollowModel="EIDM" lcStrategic="500" lcKeepRight="0" lcOvertakeRight="1" lcCooperative="1" lcSpeedGainRight="1" lcLookaheadLeft="250"/>
		<vType id="car37" sigma="0.500" tau="1.691" length="4.593" accel="2.699" decel="5.249" emergencyDecel="9.115" maxSpeed="44.729" minGap="2.604" vClass="passenger" carFollowModel="EIDM" lcStrategic="500" lcKeepRight="0" lcOvertakeRight="1" lcCooperative="1" lcSpeedGainRight="1" lcLookaheadLeft="250"/>
		<vType id="car38" sigma="0.500" tau="1.491" length="4.640" accel="3.403" decel="5" emergencyDecel="9.082" maxSpeed="37.697" minGap="3.150" vClass="passenger" carFollowModel="EIDM" lcStrategic="500" lcKeepRight="0" lcOvertakeRight="1" lcCooperative="1" lcSpeedGainRight="1" lcLookaheadLeft="250"/>
		<vType id="car39" sigma="0.500" tau="1.599" length="4.712" accel="3.202" decel="4.753" emergencyDecel="8.847" maxSpeed="42.254" minGap="3.190" vClass="passenger" carFollowModel="EIDM" lcStrategic="500" lcKeepRight="0" lcOvertakeRight="1" lcCooperative="1" lcSpeedGainRight="1" lcLookaheadLeft="250"/>
		<vType id="car40" sigma="0.500" tau="0.808" length="5.441" accel="3.456" decel="5.164" emergencyDecel="9.137" maxSpeed="41.005" minGap="3.431" vClass="passenger" carFollowModel="EIDM" lcStrategic="500" lcKeepRight="0" lcOvertakeRight="1" lcCooperative="1" lcSpeedGainRight="1" lcLookaheadLeft="250"/>
		<vType id="car41" sigma="0.500" tau="0.717" length="4.345" accel="2.627" decel="4.977" emergencyDecel="8.899" maxSpeed="42.142" minGap="2.867" vClass="passenger" carFollowModel="EIDM" lcStrategic="500" lcKeepRight="0" lcOvertakeRight="1" lcCooperative="1" lcSpeedGainRight="1" lcLookaheadLeft="250"/>
		<vType id="car42" sigma="0.500" tau="1.455" length="5.095" accel="3.280" decel="4.961" emergencyDecel="8.732" maxSpeed="40.191" minGap="3.415" vClass="passenger" carFollowModel="EIDM" lcStrategic="500" lcKeepRight="0" lcOvertakeRight="1" lcCooperative="1" lcSpeedGainRight="1" lcLookaheadLeft="250"/>
		<vType id="car43" sigma="0.500" tau="2.718" length="3.717" accel="3.047" decel="5.071" emergencyDecel="9.231" maxSpeed="36.543" minGap="2.598" vClass="passenger" carFollowModel="EIDM" lcStrategic="500" lcKeepRight="0" lcOvertakeRight="1" lcCooperative="1" lcSpeedGainRight="1" lcLookaheadLeft="250"/>
		<vType id="car44" sigma="0.500" tau="0.963" length="4.210" accel="3.205" decel="4.504" emergencyDecel="8.852" maxSpeed="44.566" minGap="2.680" vClass="passenger" carFollowModel="EIDM" lcStrategic="500" lcKeepRight="0" lcOvertakeRight="1" lcCooperative="1" lcSpeedGainRight="1" lcLookaheadLeft="250"/>
		<vType id="car45" sigma="0.500" tau="1.392" length="4.844" accel="2.544" decel="4.864" emergencyDecel="9.274" maxSpeed="36.340" minGap="3.404" vClass="passenger" carFollowModel="EIDM" lcStrategic="500" lcKeepRight="0" lcOvertakeRight="1" lcCooperative="1" lcSpeedGainRight="1" lcLookaheadLeft="250"/>
		<vType id="car46" sigma="0.500" tau="1.682" length="4.233" accel="3.120" decel="4.870" emergencyDecel="9.183" maxSpeed="42.157" minGap="2.781" vClass="passenger" carFollowModel="EIDM" lcStrategic="500" lcKeepRight="0" lcOvertakeRight="1" lcCooperative="1" lcSpeedGainRight="1" lcLookaheadLeft="250"/>
		<vType id="car47" sigma="0.500" tau="2.083" length="4.905" accel="3.255" decel="5.439" emergencyDecel="8.966" maxSpeed="38.083" minGap="3.113" vClass="passenger" carFollowModel="EIDM" lcStrategic="500" lcKeepRight="0" lcOvertakeRight="1" lcCooperative="1" lcSpeedGainRight="1" lcLookaheadLeft="250"/>
		<vType id="car48" sigma="0.500" tau="0.946" length="4.890" accel="3.296" decel="4.854" emergencyDecel="9.095" maxSpeed="38.366" minGap="3.202" vClass="passenger" carFollowModel="EIDM" lcStrategic="500" lcKeepRight="0" lcOvertakeRight="1" lcCooperative="1" lcSpeedGainRight="1" lcLookaheadLeft="250"/>
		<vType id="car49" sigma="0.500" tau="2.725" length="4.318" accel="2.387" decel="5.476" emergencyDecel="8.944" maxSpeed="37.758" minGap="3.491" vClass="passenger" carFollowModel="EIDM" lcStrategic="500" lcKeepRight="0" lcOvertakeRight="1" lcCooperative="1" lcSpeedGainRight="1" lcLookaheadLeft="250"/>
		<vType id="car50" sigma="0.500" tau="1.037" length="4.249" accel="2.412" decel="5.205" emergencyDecel="9.121" maxSpeed="43.121" minGap="2.975" vClass="passenger" carFollowModel="EIDM" lcStrategic="500" lcKeepRight="0" lcOvertakeRight="1" lcCooperative="1" lcSpeedGainRight="1" lcLookaheadLeft="250"/>
		<vType id="car51" sigma="0.500" tau="2.832" length="5.063" accel="2.817" decel="4.696" emergencyDecel="9.139" maxSpeed="42.492" minGap="2.689" vClass="passenger" carFollowModel="EIDM" lcStrategic="500" lcKeepRight="0" lcOvertakeRight="1" lcCooperative="1" lcSpeedGainRight="1" lcLookaheadLeft="250"/>
		<vType id="car52" sigma="0.500" tau="1.802" length="5.082" accel="3.216" decel="4.838" emergencyDecel="9.053" maxSpeed="36.227" minGap="3.038" vClass="passenger" carFollowModel="EIDM" lcStrategic="500" lcKeepRight="0" lcOvertakeRight="1" lcCooperative="1" lcSpeedGainRight="1" lcLookaheadLeft="250"/>
		<vType id="car53" sigma="0.500" tau="1.825" length="4.639" accel="2.502" decel="5.203" emergencyDecel="9.340" maxSpeed="41.209" minGap="2.880" vClass="passenger" carFollowModel="EIDM" lcStrategic="500" lcKeepRight="0" lcOvertakeRight="1" lcCooperative="1" lcSpeedGainRight="1" lcLookaheadLeft="250"/>
		<vType id="car54" sigma="0.500" tau="1.744" length="4.804" accel="3.384" decel="4.856" emergencyDecel="9.046" maxSpeed="39.650" minGap="2.979" vClass="passenger" carFollowModel="EIDM" lcStrategic="500" lcKeepRight="0" lcOvertakeRight="1" lcCooperative="1" lcSpeedGainRight="1" lcLookaheadLeft="250"/>
		<vType id="car55" sigma="0.500" tau="0.921" length="4.222" accel="2.537" decel="5.084" emergencyDecel="9.228" maxSpeed="42.473" minGap="3.096" vClass="passenger" carFollowModel="EIDM" lcStrategic="500" lcKeepRight="0" lcOvertakeRight="1" lcCooperative="1" lcSpeedGainRight="1" lcLookaheadLeft="250"/>
		<vType id="car56" sigma="0.500" tau="2.376" length="5.031" accel="2.235" decel="4.680" emergencyDecel="9.144" maxSpeed="43.434" minGap="2.957" vClass="passenger" carFollowModel="EIDM" lcStrategic="500" lcKeepRight="0" lcOvertakeRight="1" lcCooperative="1" lcSpeedGainRight="1" lcLookaheadLeft="250"/>
		<vType id="car57" sigma="0.500" tau="0.823" length="4.610" accel="2.574" decel="4.745" emergencyDecel="9.061" maxSpeed="44.306" minGap="3.354" vClass="passenger" carFollowModel="EIDM" lcStrategic="500" lcKeepRight="0" lcOvertakeRight="1" lcCooperative="1" lcSpeedGainRight="1" lcLookaheadLeft="250"/>
		<vType id="car58" sigma="0.500" tau="0.549" length="4.256" accel="2.408" decel="4.882" emergencyDecel="8.462" maxSpeed="41.855" minGap="3.053" vClass="passenger" carFollowModel="EIDM" lcStrategic="500" lcKeepRight="0" lcOvertakeRight="1" lcCooperative="1" lcSpeedGainRight="1" lcLookaheadLeft="250"/>
		<vType id="car59" sigma="0.500" tau="1.960" length="5.110" accel="2.958" decel="4.778" emergencyDecel="9.012" maxSpeed="42.337" minGap="3.342" vClass="passenger" carFollowModel="EIDM" lcStrategic="500" lcKeepRight="0" lcOvertakeRight="1" lcCooperative="1" lcSpeedGainRight="1" lcLookaheadLeft="250"/>
		<vType id="car60" sigma="0.500" tau="2.934" length="4.409" accel="3.384" decel="4.551" emergencyDecel="8.867" maxSpeed="39.982" minGap="3.333" vClass="passenger" carFollowModel="EIDM" lcStrategic="500" lcKeepRight="0" lcOvertakeRight="1" lcCooperative="1" lcSpeedGainRight="1" lcLookaheadLeft="250"/>
		<vType id="car61" sigma="0.500" tau="2.762" length="4.198" accel="2.091" decel="4.938" emergencyDecel="9.239" maxSpeed="40.355" minGap="3.455" vClass="passenger" carFollowModel="EIDM" lcStrategic="500" lcKeepRight="0" lcOvertakeRight="1" lcCooperative="1" lcSpeedGainRight="1" lcLookaheadLeft="250"/>
		<vType id="car62" sigma="0.500" tau="2.224" length="4.757" accel="2.260" decel="4.991" emergencyDecel="9.003" maxSpeed="43.374" minGap="2.921" vClass="passenger" carFollowModel="EIDM" lcStrategic="500" lcKeepRight="0" lcOvertakeRight="1" lcCooperative="1" lcSpeedGainRight="1" lcLookaheadLeft="250"/>
		<vType id="car63" sigma="0.500" tau="2.872" length="4.618" accel="2.333" decel="5.184" emergencyDecel="8.713" maxSpeed="36.206" minGap="3.435" vClass="passenger" carFollowModel="EIDM" lcStrategic="500" lcKeepRight="0" lcOvertakeRight="1" lcCooperative="1" lcSpeedGainRight="1" lcLookaheadLeft="250"/>
		<vType id="car64" sigma="0.500" tau="1.567" length="4.694" accel="2.912" decel="5.184" emergencyDecel="8.915" maxSpeed="40.309" minGap="2.654" vClass="passenger" carFollowModel="EIDM" lcStrategic="500" lcKeepRight="0" lcOvertakeRight="1" lcCooperative="1" lcSpeedGainRight="1" lcLookaheadLeft="250"/>
		<vType id="car65" sigma="0.500" tau="1.053" length="4.390" accel="3.204" decel="4.822" emergencyDecel="8.940" maxSpeed="42.166" minGap="2.668" vClass="passenger" carFollowModel="EIDM" lcStrategic="500" lcKeepRight="0" lcOvertakeRight="1" lcCooperative="1" lcSpeedGainRight="1" lcLookaheadLeft="250"/>
		<vType id="car66" sigma="0.500" tau="0.907" length="4.938" accel="3.042" decel="4.734" emergencyDecel="9.158" maxSpeed="40.674" minGap="3.185" vClass="passenger" carFollowModel="EIDM" lcStrategic="500" lcKeepRight="0" lcOvertakeRight="1" lcCooperative="1" lcSpeedGainRight="1" lcLookaheadLeft="250"/>
		<vType id="car67" sigma="0.500" tau="3.725" length="5.410" accel="2.251" decel="4.767" emergencyDecel="8.897" maxSpeed="43.630" minGap="3.418" vClass="passenger" carFollowModel="EIDM" lcStrategic="500" lcKeepRight="0" lcOvertakeRight="1" lcCooperative="1" lcSpeedGainRight="1" lcLookaheadLeft="250"/>
		<vType id="car68" sigma="0.500" tau="1.469" length="5.017" accel="2.148" decel="5.391" emergencyDecel="8.841" maxSpeed="36.935" minGap="2.945" vClass="passenger" carFollowModel="EIDM" lcStrategic="500" lcKeepRight="0" lcOvertakeRight="1" lcCooperative="1" lcSpeedGainRight="1" lcLookaheadLeft="250"/>
		<vType id="car69" sigma="0.500" tau="1.096" length="4.396" accel="3.128" decel="5.155" emergencyDecel="9.188" maxSpeed="41.651" minGap="2.635" vClass="passenger" carFollowModel="EIDM" lcStrategic="500" lcKeepRight="0" lcOvertakeRight="1" lcCooperative="1" lcSpeedGainRight="1" lcLookaheadLeft="250"/>
		<vType id="car70" sigma="0.500" tau="1.456" length="4.714" accel="2.969" decel="5.067" emergencyDecel="9.121" maxSpeed="45.684" minGap="2.681" vClass="passenger" carFollowModel="EIDM" lcStrategic="500" lcKeepRight="0" lcOvertakeRight="1" lcCooperative="1" lcSpeedGainRight="1" lcLookaheadLeft="250"/>
		<vType id="car71" sigma="0.500" tau="1.088" length="4.473" accel="2.633" decel="5.249" emergencyDecel="9.024" maxSpeed="37.363" minGap="2.610" vClass="passenger" carFollowModel="EIDM" lcStrategic="500" lcKeepRight="0" lcOvertakeRight="1" lcCooperative="1" lcSpeedGainRight="1" lcLookaheadLeft="250"/>
		<vType id="car72" sigma="0.500" tau="1.694" length="4.520" accel="3.246" decel="5.462" emergencyDecel="9.292" maxSpeed="43.096" minGap="2.597" vClass="passenger" carFollowModel="EIDM" lcStrategic="500" lcKeepRight="0" lcOvertakeRight="1" lcCooperative="1" lcSpeedGainRight="1" lcLookaheadLeft="250"/>
		<vType id="car73" sigma="0.500" tau="0.821" length="5.558" accel="2.527" decel="4.850" emergencyDecel="8.935" maxSpeed="38.576" minGap="3.058" vClass="passenger" carFollowModel="EIDM" lcStrategic="500" lcKeepRight="0" lcOvertakeRight="1" lcCooperative="1" lcSpeedGainRight="1" lcLookaheadLeft="250"/>
		<vType id="car74" sigma="0.500" tau="2.441" length="4.959" accel="2.043" decel="5" emergencyDecel="9.055" maxSpeed="39.882" minGap="2.690" vClass="passenger" carFollowModel="EIDM" lcStrategic="500" lcKeepRight="0" lcOvertakeRight="1" lcCooperative="1" lcSpeedGainRight="1" lcLookaheadLeft="250"/>
		<vType id="car75" sigma="0.500" tau="0.529" length="4.075" accel="2.512" decel="4.546" emergencyDecel="8.675" maxSpeed="39.145" minGap="3.384" vClass="passenger" carFollowModel="EIDM" lcStrategic="500" lcKeepRight="0" lcOvertakeRight="1" lcCooperative="1" lcSpeedGainRight="1" lcLookaheadLeft="250"/>
		<vType id="car76" sigma="0.500" tau="2.794" length="4.612" accel="3.079" decel="5.013" emergencyDecel="8.793" maxSpeed="40.358" minGap="3.250" vClass="passenger" carFollowModel="EIDM" lcStrategic="500" lcKeepRight="0" lcOvertakeRight="1" lcCooperative="1" lcSpeedGainRight="1" lcLookaheadLeft="250"/>
		<vType id="car77" sigma="0.500" tau="1.202" length="4.614" accel="3.397" decel="4.537" emergencyDecel="9.174" maxSpeed="39.794" minGap="3.269" vClass="passenger" carFollowModel="EIDM" lcStrategic="500" lcKeepRight="0" lcOvertakeRight="1" lcCooperative="1" lcSpeedGainRight="1" lcLookaheadLeft="250"/>
		<vType id="car78" sigma="0.500" tau="2.058" length="4.518" accel="2.396" decel="4.764" emergencyDecel="9.042" maxSpeed="42.479" minGap="3.425" vClass="passenger" carFollowModel="EIDM" lcStrategic="500" lcKeepRight="0" lcOvertakeRight="1" lcCooperative="1" lcSpeedGainRight="1" lcLookaheadLeft="250"/>
		<vType id="car79" sigma="0.500" tau="0.854" length="4.359" accel="2.484" decel="4.682" emergencyDecel="8.712" maxSpeed="41.506" minGap="2.932" vClass="passenger" carFollowModel="EIDM" lcStrategic="500" lcKeepRight="0" lcOvertakeRight="1" lcCooperative="1" lcSpeedGainRight="1" lcLookaheadLeft="250"/>
		<vType id="car80" sigma="0.500" tau="1.838" length="4.526" accel="3.215" decel="4.881" emergencyDecel="9.026" maxSpeed="36.401" minGap="3.492" vClass="passenger" carFollowModel="EIDM" lcStrategic="500" lcKeepRight="0" lcOvertakeRight="1" lcCooperative="1" lcSpeedGainRight="1" lcLookaheadLeft="250"/>
		<vType id="car81" sigma="0.500" tau="2.817" length="4.817" accel="2.462" decel="4.587" emergencyDecel="9.004" maxSpeed="38.335" minGap="3.271" vClass="passenger" carFollowModel="EIDM" lcStrategic="500" lcKeepRight="0" lcOvertakeRight="1" lcCooperative="1" lcSpeedGainRight="1" lcLookaheadLeft="250"/>
		<vType id="car82" sigma="0.500" tau="1.366" length="4.867" accel="2.753" decel="4.851" emergencyDecel="9.047" maxSpeed="45.214" minGap="2.663" vClass="passenger" carFollowModel="EIDM" lcStrategic="500" lcKeepRight="0" lcOvertakeRight="1" lcCooperative="1" lcSpeedGainRight="1" lcLookaheadLeft="250"/>
		<vType id="car83" sigma="0.500" tau="1.917" length="3.900" accel="2.610" decel="5" emergencyDecel="8.792" maxSpeed="39.554" minGap="2.907" vClass="passenger" carFollowModel="EIDM" lcStrategic="500" lcKeepRight="0" lcOvertakeRight="1" lcCooperative="1" lcSpeedGainRight="1" lcLookaheadLeft="250"/>
		<vType id="car84" sigma="0.500" tau="1.001" length="4.943" accel="3.069" decel="4.601" emergencyDecel="8.838" maxSpeed="41.812" minGap="2.922" vClass="passenger" carFollowModel="EIDM" lcStrategic="500" lcKeepRight="0" lcOvertakeRight="1" lcCooperative="1" lcSpeedGainRight="1" lcLookaheadLeft="250"/>
		<vType id="car85" sigma="0.500" tau="1.992" length="5.772" accel="3.230" decel="5.023" emergencyDecel="8.902" maxSpeed="43.955" minGap="3.091" vClass="passenger" carFollowModel="EIDM" lcStrategic="500" lcKeepRight="0" lcOvertakeRight="1" lcCooperative="1" lcSpeedGainRight="1" lcLookaheadLeft="250"/>
		<vType id="car86" sigma="0.500" tau="2.496" length="5.086" accel="2.576" decel="4.851" emergencyDecel="8.825" maxSpeed="42.257" minGap="2.962" vClass="passenger" carFollowModel="EIDM" lcStrategic="500" lcKeepRight="0" lcOvertakeRight="1" lcCooperative="1" lcSpeedGainRight="1" lcLookaheadLeft="250"/>
		<vType id="car87" sigma="0.500" tau="1.099" length="4.706" accel="2.640" decel="5.030" emergencyDecel="9.249" maxSpeed="39.952" minGap="2.902" vClass="passenger" carFollowModel="EIDM" lcStrategic="500" lcKeepRight="0" lcOvertakeRight="1" lcCooperative="1" lcSpeedGainRight="1" lcLookaheadLeft="250"/>
		<vType id="car88" sigma="0.500" tau="2.346" length="4.884" accel="2.631" decel="5.001" emergencyDecel="8.979" maxSpeed="44.868" minGap="3.167" vClass="passenger" carFollowModel="EIDM" lcStrategic="500" lcKeepRight="0" lcOvertakeRight="1" lcCooperative="1" lcSpeedGainRight="1" lcLookaheadLeft="250"/>
		<vType id="car89" sigma="0.500" tau="0.823" length="4.858" accel="2.833" decel="4.982" emergencyDecel="8.925" maxSpeed="43.304" minGap="2.904" vClass="passenger" carFollowModel="EIDM" lcStrategic="500" lcKeepRight="0" lcOvertakeRight="1" lcCooperative="1" lcSpeedGainRight="1" lcLookaheadLeft="250"/>
		<vType id="car90" sigma="0.500" tau="2.623" length="5.448" accel="2.913" decel="4.716" emergencyDecel="9.221" maxSpeed="37.356" minGap="2.852" vClass="passenger" carFollowModel="EIDM" lcStrategic="500" lcKeepRight="0" lcOvertakeRight="1" lcCooperative="1" lcSpeedGainRight="1" lcLookaheadLeft="250"/>
		<vType id="car91" sigma="0.500" tau="1.115" length="4.687" accel="2.059" decel="5.431" emergencyDecel="9.018" maxSpeed="39.560" minGap="3.236" vClass="passenger" carFollowModel="EIDM" lcStrategic="500" lcKeepRight="0" lcOvertakeRight="1" lcCooperative="1" lcSpeedGainRight="1" lcLookaheadLeft="250"/>
		<vType id="car92" sigma="0.500" tau="3.149" length="4.778" accel="2.253" decel="4.831" emergencyDecel="9.320" maxSpeed="39.715" minGap="2.956" vClass="passenger" carFollowModel="EIDM" lcStrategic="500" lcKeepRight="0" lcOvertakeRight="1" lcCooperative="1" lcSpeedGainRight="1" lcLookaheadLeft="250"/>
		<vType id="car93" sigma="0.500" tau="1.859" length="4.403" accel="2.378" decel="4.781" emergencyDecel="9.077" maxSpeed="43.459" minGap="3.372" vClass="passenger" carFollowModel="EIDM" lcStrategic="500" lcKeepRight="0" lcOvertakeRight="1" lcCooperative="1" lcSpeedGainRight="1" lcLookaheadLeft="250"/>
		<vType id="car94" sigma="0.500" tau="2.085" length="4.622" accel="2.176" decel="5.181" emergencyDecel="9.296" maxSpeed="39.260" minGap="2.505" vClass="passenger" carFollowModel="EIDM" lcStrategic="500" lcKeepRight="0" lcOvertakeRight="1" lcCooperative="1" lcSpeedGainRight="1" lcLookaheadLeft="250"/>
		<vType id="car95" sigma="0.500" tau="1.293" length="4.218" accel="3.073" decel="4.845" emergencyDecel="9.259" maxSpeed="41.418" minGap="3.429" vClass="passenger" carFollowModel="EIDM" lcStrategic="500" lcKeepRight="0" lcOvertakeRight="1" lcCooperative="1" lcSpeedGainRight="1" lcLookaheadLeft="250"/>
		<vType id="car96" sigma="0.500" tau="2.230" length="4.714" accel="2.731" decel="4.840" emergencyDecel="9.382" maxSpeed="38.733" minGap="2.524" vClass="passenger" carFollowModel="EIDM" lcStrategic="500" lcKeepRight="0" lcOvertakeRight="1" lcCooperative="1" lcSpeedGainRight="1" lcLookaheadLeft="250"/>
		<vType id="car97" sigma="0.500" tau="3.165" length="4.675" accel="2.982" decel="4.775" emergencyDecel="8.956" maxSpeed="40.468" minGap="3.261" vClass="passenger" carFollowModel="EIDM" lcStrategic="500" lcKeepRight="0" lcOvertakeRight="1" lcCooperative="1" lcSpeedGainRight="1" lcLookaheadLeft="250"/>